
---------- Begin Simulation Statistics ----------
final_tick                                 1386484000                       # Number of ticks from beginning of simulation (restored from checkpoints and never reset)
host_inst_rate                                 140482                       # Simulator instruction rate (inst/s)
host_mem_usage                                 665956                       # Number of bytes of host memory used
host_op_rate                                   140689                       # Simulator op (including micro ops) rate (op/s)
host_seconds                                     6.04                       # Real time elapsed on the host
host_tick_rate                              229434219                       # Simulator tick rate (ticks/s)
sim_freq                                 1000000000000                       # Frequency of simulated ticks
sim_insts                                      848885                       # Number of instructions simulated
sim_ops                                        850180                       # Number of ops (including micro ops) simulated
sim_seconds                                  0.001386                       # Number of seconds simulated
sim_ticks                                  1386484000                       # Number of ticks simulated
system.cpu.Branches                             61798                       # Number of branches fetched
system.cpu.committedInsts                      848885                       # Number of instructions committed
system.cpu.committedOps                        850180                       # Number of ops (including micro ops) committed
system.cpu.dtb.accesses                             0                       # DTB accesses
system.cpu.dtb.align_faults                         0                       # Number of TLB faults due to alignment restrictions
system.cpu.dtb.domain_faults                        0                       # Number of TLB faults due to domain restrictions
system.cpu.dtb.flush_entries                        0                       # Number of entries that have been flushed from TLB
system.cpu.dtb.flush_tlb                            0                       # Number of times complete TLB was flushed
system.cpu.dtb.flush_tlb_asid                       0                       # Number of times TLB was flushed by ASID
system.cpu.dtb.flush_tlb_mva                        0                       # Number of times TLB was flushed by MVA
system.cpu.dtb.flush_tlb_mva_asid                   0                       # Number of times TLB was flushed by MVA & ASID
system.cpu.dtb.hits                                 0                       # DTB hits
system.cpu.dtb.inst_accesses                        0                       # ITB inst accesses
system.cpu.dtb.inst_hits                            0                       # ITB inst hits
system.cpu.dtb.inst_misses                          0                       # ITB inst misses
system.cpu.dtb.misses                               0                       # DTB misses
system.cpu.dtb.perms_faults                         0                       # Number of TLB faults due to permissions restrictions
system.cpu.dtb.prefetch_faults                      0                       # Number of TLB faults due to prefetch
system.cpu.dtb.read_accesses                        0                       # DTB read accesses
system.cpu.dtb.read_hits                            0                       # DTB read hits
system.cpu.dtb.read_misses                          0                       # DTB read misses
system.cpu.dtb.stage2_mmu.stage2_tlb.accesses            0                       # DTB accesses
system.cpu.dtb.stage2_mmu.stage2_tlb.align_faults            0                       # Number of TLB faults due to alignment restrictions
system.cpu.dtb.stage2_mmu.stage2_tlb.domain_faults            0                       # Number of TLB faults due to domain restrictions
system.cpu.dtb.stage2_mmu.stage2_tlb.flush_entries            0                       # Number of entries that have been flushed from TLB
system.cpu.dtb.stage2_mmu.stage2_tlb.flush_tlb            0                       # Number of times complete TLB was flushed
system.cpu.dtb.stage2_mmu.stage2_tlb.flush_tlb_asid            0                       # Number of times TLB was flushed by ASID
system.cpu.dtb.stage2_mmu.stage2_tlb.flush_tlb_mva            0                       # Number of times TLB was flushed by MVA
system.cpu.dtb.stage2_mmu.stage2_tlb.flush_tlb_mva_asid            0                       # Number of times TLB was flushed by MVA & ASID
system.cpu.dtb.stage2_mmu.stage2_tlb.hits            0                       # DTB hits
system.cpu.dtb.stage2_mmu.stage2_tlb.inst_accesses            0                       # ITB inst accesses
system.cpu.dtb.stage2_mmu.stage2_tlb.inst_hits            0                       # ITB inst hits
system.cpu.dtb.stage2_mmu.stage2_tlb.inst_misses            0                       # ITB inst misses
system.cpu.dtb.stage2_mmu.stage2_tlb.misses            0                       # DTB misses
system.cpu.dtb.stage2_mmu.stage2_tlb.perms_faults            0                       # Number of TLB faults due to permissions restrictions
system.cpu.dtb.stage2_mmu.stage2_tlb.prefetch_faults            0                       # Number of TLB faults due to prefetch
system.cpu.dtb.stage2_mmu.stage2_tlb.read_accesses            0                       # DTB read accesses
system.cpu.dtb.stage2_mmu.stage2_tlb.read_hits            0                       # DTB read hits
system.cpu.dtb.stage2_mmu.stage2_tlb.read_misses            0                       # DTB read misses
system.cpu.dtb.stage2_mmu.stage2_tlb.walker.walkRequestOrigin_Requested::Data            0                       # Table walker requests started/completed, data/inst
system.cpu.dtb.stage2_mmu.stage2_tlb.walker.walkRequestOrigin_Requested::Inst            0                       # Table walker requests started/completed, data/inst
system.cpu.dtb.stage2_mmu.stage2_tlb.walker.walkRequestOrigin_Requested::total            0                       # Table walker requests started/completed, data/inst
system.cpu.dtb.stage2_mmu.stage2_tlb.walker.walkRequestOrigin_Completed::Data            0                       # Table walker requests started/completed, data/inst
system.cpu.dtb.stage2_mmu.stage2_tlb.walker.walkRequestOrigin_Completed::Inst            0                       # Table walker requests started/completed, data/inst
system.cpu.dtb.stage2_mmu.stage2_tlb.walker.walkRequestOrigin_Completed::total            0                       # Table walker requests started/completed, data/inst
system.cpu.dtb.stage2_mmu.stage2_tlb.walker.walkRequestOrigin::total            0                       # Table walker requests started/completed, data/inst
system.cpu.dtb.stage2_mmu.stage2_tlb.walker.walks            0                       # Table walker walks requested
system.cpu.dtb.stage2_mmu.stage2_tlb.write_accesses            0                       # DTB write accesses
system.cpu.dtb.stage2_mmu.stage2_tlb.write_hits            0                       # DTB write hits
system.cpu.dtb.stage2_mmu.stage2_tlb.write_misses            0                       # DTB write misses
system.cpu.dtb.walker.walkRequestOrigin_Requested::Data            0                       # Table walker requests started/completed, data/inst
system.cpu.dtb.walker.walkRequestOrigin_Requested::Inst            0                       # Table walker requests started/completed, data/inst
system.cpu.dtb.walker.walkRequestOrigin_Requested::total            0                       # Table walker requests started/completed, data/inst
system.cpu.dtb.walker.walkRequestOrigin_Completed::Data            0                       # Table walker requests started/completed, data/inst
system.cpu.dtb.walker.walkRequestOrigin_Completed::Inst            0                       # Table walker requests started/completed, data/inst
system.cpu.dtb.walker.walkRequestOrigin_Completed::total            0                       # Table walker requests started/completed, data/inst
system.cpu.dtb.walker.walkRequestOrigin::total            0                       # Table walker requests started/completed, data/inst
system.cpu.dtb.walker.walks                         0                       # Table walker walks requested
system.cpu.dtb.write_accesses                       0                       # DTB write accesses
system.cpu.dtb.write_hits                           0                       # DTB write hits
system.cpu.dtb.write_misses                         0                       # DTB write misses
system.cpu.idle_fraction                     0.000000                       # Percentage of idle cycles
system.cpu.itb.accesses                             0                       # DTB accesses
system.cpu.itb.align_faults                         0                       # Number of TLB faults due to alignment restrictions
system.cpu.itb.domain_faults                        0                       # Number of TLB faults due to domain restrictions
system.cpu.itb.flush_entries                        0                       # Number of entries that have been flushed from TLB
system.cpu.itb.flush_tlb                            0                       # Number of times complete TLB was flushed
system.cpu.itb.flush_tlb_asid                       0                       # Number of times TLB was flushed by ASID
system.cpu.itb.flush_tlb_mva                        0                       # Number of times TLB was flushed by MVA
system.cpu.itb.flush_tlb_mva_asid                   0                       # Number of times TLB was flushed by MVA & ASID
system.cpu.itb.hits                                 0                       # DTB hits
system.cpu.itb.inst_accesses                        0                       # ITB inst accesses
system.cpu.itb.inst_hits                            0                       # ITB inst hits
system.cpu.itb.inst_misses                          0                       # ITB inst misses
system.cpu.itb.misses                               0                       # DTB misses
system.cpu.itb.perms_faults                         0                       # Number of TLB faults due to permissions restrictions
system.cpu.itb.prefetch_faults                      0                       # Number of TLB faults due to prefetch
system.cpu.itb.read_accesses                        0                       # DTB read accesses
system.cpu.itb.read_hits                            0                       # DTB read hits
system.cpu.itb.read_misses                          0                       # DTB read misses
system.cpu.itb.stage2_mmu.stage2_tlb.accesses            0                       # DTB accesses
system.cpu.itb.stage2_mmu.stage2_tlb.align_faults            0                       # Number of TLB faults due to alignment restrictions
system.cpu.itb.stage2_mmu.stage2_tlb.domain_faults            0                       # Number of TLB faults due to domain restrictions
system.cpu.itb.stage2_mmu.stage2_tlb.flush_entries            0                       # Number of entries that have been flushed from TLB
system.cpu.itb.stage2_mmu.stage2_tlb.flush_tlb            0                       # Number of times complete TLB was flushed
system.cpu.itb.stage2_mmu.stage2_tlb.flush_tlb_asid            0                       # Number of times TLB was flushed by ASID
system.cpu.itb.stage2_mmu.stage2_tlb.flush_tlb_mva            0                       # Number of times TLB was flushed by MVA
system.cpu.itb.stage2_mmu.stage2_tlb.flush_tlb_mva_asid            0                       # Number of times TLB was flushed by MVA & ASID
system.cpu.itb.stage2_mmu.stage2_tlb.hits            0                       # DTB hits
system.cpu.itb.stage2_mmu.stage2_tlb.inst_accesses            0                       # ITB inst accesses
system.cpu.itb.stage2_mmu.stage2_tlb.inst_hits            0                       # ITB inst hits
system.cpu.itb.stage2_mmu.stage2_tlb.inst_misses            0                       # ITB inst misses
system.cpu.itb.stage2_mmu.stage2_tlb.misses            0                       # DTB misses
system.cpu.itb.stage2_mmu.stage2_tlb.perms_faults            0                       # Number of TLB faults due to permissions restrictions
system.cpu.itb.stage2_mmu.stage2_tlb.prefetch_faults            0                       # Number of TLB faults due to prefetch
system.cpu.itb.stage2_mmu.stage2_tlb.read_accesses            0                       # DTB read accesses
system.cpu.itb.stage2_mmu.stage2_tlb.read_hits            0                       # DTB read hits
system.cpu.itb.stage2_mmu.stage2_tlb.read_misses            0                       # DTB read misses
system.cpu.itb.stage2_mmu.stage2_tlb.walker.walkRequestOrigin_Requested::Data            0                       # Table walker requests started/completed, data/inst
system.cpu.itb.stage2_mmu.stage2_tlb.walker.walkRequestOrigin_Requested::Inst            0                       # Table walker requests started/completed, data/inst
system.cpu.itb.stage2_mmu.stage2_tlb.walker.walkRequestOrigin_Requested::total            0                       # Table walker requests started/completed, data/inst
system.cpu.itb.stage2_mmu.stage2_tlb.walker.walkRequestOrigin_Completed::Data            0                       # Table walker requests started/completed, data/inst
system.cpu.itb.stage2_mmu.stage2_tlb.walker.walkRequestOrigin_Completed::Inst            0                       # Table walker requests started/completed, data/inst
system.cpu.itb.stage2_mmu.stage2_tlb.walker.walkRequestOrigin_Completed::total            0                       # Table walker requests started/completed, data/inst
system.cpu.itb.stage2_mmu.stage2_tlb.walker.walkRequestOrigin::total            0                       # Table walker requests started/completed, data/inst
system.cpu.itb.stage2_mmu.stage2_tlb.walker.walks            0                       # Table walker walks requested
system.cpu.itb.stage2_mmu.stage2_tlb.write_accesses            0                       # DTB write accesses
system.cpu.itb.stage2_mmu.stage2_tlb.write_hits            0                       # DTB write hits
system.cpu.itb.stage2_mmu.stage2_tlb.write_misses            0                       # DTB write misses
system.cpu.itb.walker.walkRequestOrigin_Requested::Data            0                       # Table walker requests started/completed, data/inst
system.cpu.itb.walker.walkRequestOrigin_Requested::Inst            0                       # Table walker requests started/completed, data/inst
system.cpu.itb.walker.walkRequestOrigin_Requested::total            0                       # Table walker requests started/completed, data/inst
system.cpu.itb.walker.walkRequestOrigin_Completed::Data            0                       # Table walker requests started/completed, data/inst
system.cpu.itb.walker.walkRequestOrigin_Completed::Inst            0                       # Table walker requests started/completed, data/inst
system.cpu.itb.walker.walkRequestOrigin_Completed::total            0                       # Table walker requests started/completed, data/inst
system.cpu.itb.walker.walkRequestOrigin::total            0                       # Table walker requests started/completed, data/inst
system.cpu.itb.walker.walks                         0                       # Table walker walks requested
system.cpu.itb.write_accesses                       0                       # DTB write accesses
system.cpu.itb.write_hits                           0                       # DTB write hits
system.cpu.itb.write_misses                         0                       # DTB write misses
system.cpu.not_idle_fraction                 1.000000                       # Percentage of non-idle cycles
system.cpu.numCycles                          2772968                       # number of cpu cycles simulated
system.cpu.numWorkItemsCompleted                    0                       # number of work items this cpu completed
system.cpu.numWorkItemsStarted                      0                       # number of work items this cpu started
system.cpu.num_busy_cycles               2772967.998000                       # Number of busy cycles
system.cpu.num_cc_register_reads              3474616                       # number of times the CC registers were read
system.cpu.num_cc_register_writes              505952                       # number of times the CC registers were written
system.cpu.num_conditional_control_insts        61294                       # number of instructions that are conditional controls
system.cpu.num_fp_alu_accesses                      0                       # Number of float alu accesses
system.cpu.num_fp_insts                             0                       # number of float instructions
system.cpu.num_fp_register_reads                    0                       # number of times the floating registers were read
system.cpu.num_fp_register_writes                   0                       # number of times the floating registers were written
system.cpu.num_func_calls                         332                       # number of times a function call or return occured
system.cpu.num_idle_cycles                   0.002000                       # Number of idle cycles
system.cpu.num_int_alu_accesses                768867                       # Number of integer alu accesses
system.cpu.num_int_insts                       768867                       # number of integer instructions
system.cpu.num_int_register_reads             1234451                       # number of times the integer registers were read
system.cpu.num_int_register_writes             609440                       # number of times the integer registers were written
system.cpu.num_load_insts                      308094                       # Number of load instructions
system.cpu.num_mem_refs                        376352                       # number of memory refs
system.cpu.num_store_insts                      68258                       # Number of store instructions
system.cpu.num_vec_alu_accesses                     0                       # Number of vector alu accesses
system.cpu.num_vec_insts                            0                       # number of vector instructions
system.cpu.num_vec_register_reads                  40                       # number of times the vector registers were read
system.cpu.num_vec_register_writes                 13                       # number of times the vector registers were written
system.cpu.op_class::No_OpClass                     0      0.00%      0.00% # Class of executed instruction
system.cpu.op_class::IntAlu                    473859     55.73%     55.73% # Class of executed instruction
system.cpu.op_class::IntMult                       53      0.01%     55.74% # Class of executed instruction
system.cpu.op_class::IntDiv                         0      0.00%     55.74% # Class of executed instruction
system.cpu.op_class::FloatAdd                       0      0.00%     55.74% # Class of executed instruction
system.cpu.op_class::FloatCmp                       0      0.00%     55.74% # Class of executed instruction
system.cpu.op_class::FloatCvt                       0      0.00%     55.74% # Class of executed instruction
system.cpu.op_class::FloatMult                      0      0.00%     55.74% # Class of executed instruction
system.cpu.op_class::FloatMultAcc                   0      0.00%     55.74% # Class of executed instruction
system.cpu.op_class::FloatDiv                       0      0.00%     55.74% # Class of executed instruction
system.cpu.op_class::FloatMisc                      0      0.00%     55.74% # Class of executed instruction
system.cpu.op_class::FloatSqrt                      0      0.00%     55.74% # Class of executed instruction
system.cpu.op_class::SimdAdd                        0      0.00%     55.74% # Class of executed instruction
system.cpu.op_class::SimdAddAcc                     0      0.00%     55.74% # Class of executed instruction
system.cpu.op_class::SimdAlu                        0      0.00%     55.74% # Class of executed instruction
system.cpu.op_class::SimdCmp                        0      0.00%     55.74% # Class of executed instruction
system.cpu.op_class::SimdCvt                        0      0.00%     55.74% # Class of executed instruction
system.cpu.op_class::SimdMisc                       0      0.00%     55.74% # Class of executed instruction
system.cpu.op_class::SimdMult                       0      0.00%     55.74% # Class of executed instruction
system.cpu.op_class::SimdMultAcc                    0      0.00%     55.74% # Class of executed instruction
system.cpu.op_class::SimdShift                      0      0.00%     55.74% # Class of executed instruction
system.cpu.op_class::SimdShiftAcc                   0      0.00%     55.74% # Class of executed instruction
system.cpu.op_class::SimdDiv                        0      0.00%     55.74% # Class of executed instruction
system.cpu.op_class::SimdSqrt                       0      0.00%     55.74% # Class of executed instruction
system.cpu.op_class::SimdFloatAdd                   0      0.00%     55.74% # Class of executed instruction
system.cpu.op_class::SimdFloatAlu                   0      0.00%     55.74% # Class of executed instruction
system.cpu.op_class::SimdFloatCmp                   0      0.00%     55.74% # Class of executed instruction
system.cpu.op_class::SimdFloatCvt                   0      0.00%     55.74% # Class of executed instruction
system.cpu.op_class::SimdFloatDiv                   0      0.00%     55.74% # Class of executed instruction
system.cpu.op_class::SimdFloatMisc                 21      0.00%     55.74% # Class of executed instruction
system.cpu.op_class::SimdFloatMult                  0      0.00%     55.74% # Class of executed instruction
system.cpu.op_class::SimdFloatMultAcc               0      0.00%     55.74% # Class of executed instruction
system.cpu.op_class::SimdFloatSqrt                  0      0.00%     55.74% # Class of executed instruction
system.cpu.op_class::SimdReduceAdd                  0      0.00%     55.74% # Class of executed instruction
system.cpu.op_class::SimdReduceAlu                  0      0.00%     55.74% # Class of executed instruction
system.cpu.op_class::SimdReduceCmp                  0      0.00%     55.74% # Class of executed instruction
system.cpu.op_class::SimdFloatReduceAdd             0      0.00%     55.74% # Class of executed instruction
system.cpu.op_class::SimdFloatReduceCmp             0      0.00%     55.74% # Class of executed instruction
system.cpu.op_class::SimdAes                        0      0.00%     55.74% # Class of executed instruction
system.cpu.op_class::SimdAesMix                     0      0.00%     55.74% # Class of executed instruction
system.cpu.op_class::SimdSha1Hash                   0      0.00%     55.74% # Class of executed instruction
system.cpu.op_class::SimdSha1Hash2                  0      0.00%     55.74% # Class of executed instruction
system.cpu.op_class::SimdSha256Hash                 0      0.00%     55.74% # Class of executed instruction
system.cpu.op_class::SimdSha256Hash2                0      0.00%     55.74% # Class of executed instruction
system.cpu.op_class::SimdShaSigma2                  0      0.00%     55.74% # Class of executed instruction
system.cpu.op_class::SimdShaSigma3                  0      0.00%     55.74% # Class of executed instruction
system.cpu.op_class::SimdPredAlu                    0      0.00%     55.74% # Class of executed instruction
system.cpu.op_class::MemRead                   308094     36.23%     91.97% # Class of executed instruction
system.cpu.op_class::MemWrite                   68258      8.03%    100.00% # Class of executed instruction
system.cpu.op_class::FloatMemRead                   0      0.00%    100.00% # Class of executed instruction
system.cpu.op_class::FloatMemWrite                  0      0.00%    100.00% # Class of executed instruction
system.cpu.op_class::IprAccess                      0      0.00%    100.00% # Class of executed instruction
system.cpu.op_class::InstPrefetch                   0      0.00%    100.00% # Class of executed instruction
system.cpu.op_class::total                     850285                       # Class of executed instruction
system.cpu.workload.numSyscalls                    10                       # Number of system calls
system.membus.snoop_filter.hit_multi_requests           11                       # Number of requests hitting in the snoop filter with multiple (>1) holders of the requested data.
system.membus.snoop_filter.hit_multi_snoops            0                       # Number of snoops hitting in the snoop filter with multiple (>1) holders of the requested data.
system.membus.snoop_filter.hit_single_requests         1150                       # Number of requests hitting in the snoop filter with a single holder of the requested data.
system.membus.snoop_filter.hit_single_snoops            0                       # Number of snoops hitting in the snoop filter with a single holder of the requested data.
system.membus.snoop_filter.tot_requests          3567                       # Total number of requests made to the snoop filter.
system.membus.snoop_filter.tot_snoops               0                       # Total number of snoops made to the snoop filter.
system.membus.pwrStateResidencyTicks::UNDEFINED   1386484000                       # Cumulative time (in ticks) in various power states
system.membus.trans_dist::ReadResp               1092                       # Transaction distribution
system.membus.trans_dist::WritebackDirty          813                       # Transaction distribution
system.membus.trans_dist::WritebackClean           34                       # Transaction distribution
system.membus.trans_dist::CleanEvict              298                       # Transaction distribution
system.membus.trans_dist::ReadExReq              1329                       # Transaction distribution
system.membus.trans_dist::ReadExResp             1329                       # Transaction distribution
system.membus.trans_dist::ReadCleanReq            286                       # Transaction distribution
system.membus.trans_dist::ReadSharedReq           806                       # Transaction distribution
system.membus.pkt_count_system.cpu.icache.mem_side::system.mem_ctrls.port          606                       # Packet count per connected master and slave (bytes)
system.membus.pkt_count_system.cpu.dcache.mem_side::system.mem_ctrls.port         5381                       # Packet count per connected master and slave (bytes)
system.membus.pkt_count::total                   5987                       # Packet count per connected master and slave (bytes)
system.membus.pkt_size_system.cpu.icache.mem_side::system.mem_ctrls.port        20480                       # Cumulative packet size per connected master and slave (bytes)
system.membus.pkt_size_system.cpu.dcache.mem_side::system.mem_ctrls.port       188672                       # Cumulative packet size per connected master and slave (bytes)
system.membus.pkt_size::total                  209152                       # Cumulative packet size per connected master and slave (bytes)
system.membus.snoops                                0                       # Total snoops (count)
system.membus.snoopTraffic                          0                       # Total snoop traffic (bytes)
system.membus.snoop_fanout::samples              2422                       # Request fanout histogram
system.membus.snoop_fanout::mean             0.006606                       # Request fanout histogram
system.membus.snoop_fanout::stdev            0.081026                       # Request fanout histogram
system.membus.snoop_fanout::underflows              0      0.00%      0.00% # Request fanout histogram
system.membus.snoop_fanout::0                    2406     99.34%     99.34% # Request fanout histogram
system.membus.snoop_fanout::1                      16      0.66%    100.00% # Request fanout histogram
system.membus.snoop_fanout::2                       0      0.00%    100.00% # Request fanout histogram
system.membus.snoop_fanout::overflows               0      0.00%    100.00% # Request fanout histogram
system.membus.snoop_fanout::min_value               0                       # Request fanout histogram
system.membus.snoop_fanout::max_value               1                       # Request fanout histogram
system.membus.snoop_fanout::total                2422                       # Request fanout histogram
system.membus.reqLayer0.occupancy             6956828                       # Layer occupancy (ticks)
system.membus.reqLayer0.utilization               0.5                       # Layer utilization (%)
system.membus.respLayer1.occupancy            1430000                       # Layer occupancy (ticks)
system.membus.respLayer1.utilization              0.1                       # Layer utilization (%)
system.membus.respLayer2.occupancy           10675000                       # Layer occupancy (ticks)
system.membus.respLayer2.utilization              0.8                       # Layer utilization (%)
system.voltage_domain.voltage                       1                       # Voltage in Volts
system.clk_domain.clock                          1000                       # Clock period in ticks
system.cpu_voltage_domain.voltage                   1                       # Voltage in Volts
system.mem_ctrls.pwrStateResidencyTicks::UNDEFINED   1386484000                       # Cumulative time (in ticks) in various power states
system.mem_ctrls.bytes_read::.cpu.inst          18304                       # Number of bytes read from this memory
system.mem_ctrls.bytes_read::.cpu.data         136640                       # Number of bytes read from this memory
system.mem_ctrls.bytes_read::total             154944                       # Number of bytes read from this memory
system.mem_ctrls.bytes_inst_read::.cpu.inst        18304                       # Number of instructions bytes read from this memory
system.mem_ctrls.bytes_inst_read::total         18304                       # Number of instructions bytes read from this memory
system.mem_ctrls.bytes_written::.writebacks        52032                       # Number of bytes written to this memory
system.mem_ctrls.bytes_written::total           52032                       # Number of bytes written to this memory
system.mem_ctrls.num_reads::.cpu.inst             286                       # Number of read requests responded to by this memory
system.mem_ctrls.num_reads::.cpu.data            2135                       # Number of read requests responded to by this memory
system.mem_ctrls.num_reads::total                2421                       # Number of read requests responded to by this memory
system.mem_ctrls.num_writes::.writebacks          813                       # Number of write requests responded to by this memory
system.mem_ctrls.num_writes::total                813                       # Number of write requests responded to by this memory
system.mem_ctrls.bw_read::.cpu.inst          13201739                       # Total read bandwidth from this memory (bytes/s)
system.mem_ctrls.bw_read::.cpu.data          98551444                       # Total read bandwidth from this memory (bytes/s)
system.mem_ctrls.bw_read::total             111753183                       # Total read bandwidth from this memory (bytes/s)
system.mem_ctrls.bw_inst_read::.cpu.inst     13201739                       # Instruction read bandwidth from this memory (bytes/s)
system.mem_ctrls.bw_inst_read::total         13201739                       # Instruction read bandwidth from this memory (bytes/s)
system.mem_ctrls.bw_write::.writebacks       37528021                       # Write bandwidth from this memory (bytes/s)
system.mem_ctrls.bw_write::total             37528021                       # Write bandwidth from this memory (bytes/s)
system.mem_ctrls.bw_total::.writebacks       37528021                       # Total bandwidth to/from this memory (bytes/s)
system.mem_ctrls.bw_total::.cpu.inst         13201739                       # Total bandwidth to/from this memory (bytes/s)
system.mem_ctrls.bw_total::.cpu.data         98551444                       # Total bandwidth to/from this memory (bytes/s)
system.mem_ctrls.bw_total::total            149281203                       # Total bandwidth to/from this memory (bytes/s)
system.cpu_clk_domain.clock                       500                       # Clock period in ticks
system.cpu.numPwrStateTransitions                   1                       # Number of power state transitions
system.cpu.pwrStateResidencyTicks::ON      1386484000                       # Cumulative time (in ticks) in various power states
system.cpu.icache.pwrStateResidencyTicks::UNDEFINED   1386484000                       # Cumulative time (in ticks) in various power states
system.cpu.icache.demand_hits::.cpu.inst       910073                       # number of demand (read+write) hits
system.cpu.icache.demand_hits::total           910073                       # number of demand (read+write) hits
system.cpu.icache.overall_hits::.cpu.inst       910073                       # number of overall hits
system.cpu.icache.overall_hits::total          910073                       # number of overall hits
system.cpu.icache.demand_misses::.cpu.inst          286                       # number of demand (read+write) misses
system.cpu.icache.demand_misses::total            286                       # number of demand (read+write) misses
system.cpu.icache.overall_misses::.cpu.inst          286                       # number of overall misses
system.cpu.icache.overall_misses::total           286                       # number of overall misses
system.cpu.icache.demand_miss_latency::.cpu.inst     12048500                       # number of demand (read+write) miss cycles
system.cpu.icache.demand_miss_latency::total     12048500                       # number of demand (read+write) miss cycles
system.cpu.icache.overall_miss_latency::.cpu.inst     12048500                       # number of overall miss cycles
system.cpu.icache.overall_miss_latency::total     12048500                       # number of overall miss cycles
system.cpu.icache.demand_accesses::.cpu.inst       910359                       # number of demand (read+write) accesses
system.cpu.icache.demand_accesses::total       910359                       # number of demand (read+write) accesses
system.cpu.icache.overall_accesses::.cpu.inst       910359                       # number of overall (read+write) accesses
system.cpu.icache.overall_accesses::total       910359                       # number of overall (read+write) accesses
system.cpu.icache.demand_miss_rate::.cpu.inst     0.000314                       # miss rate for demand accesses
system.cpu.icache.demand_miss_rate::total     0.000314                       # miss rate for demand accesses
system.cpu.icache.overall_miss_rate::.cpu.inst     0.000314                       # miss rate for overall accesses
system.cpu.icache.overall_miss_rate::total     0.000314                       # miss rate for overall accesses
system.cpu.icache.demand_avg_miss_latency::.cpu.inst 42127.622378                       # average overall miss latency
system.cpu.icache.demand_avg_miss_latency::total 42127.622378                       # average overall miss latency
system.cpu.icache.overall_avg_miss_latency::.cpu.inst 42127.622378                       # average overall miss latency
system.cpu.icache.overall_avg_miss_latency::total 42127.622378                       # average overall miss latency
system.cpu.icache.blocked_cycles::no_mshrs            0                       # number of cycles access was blocked
system.cpu.icache.blocked_cycles::no_targets            0                       # number of cycles access was blocked
system.cpu.icache.blocked::no_mshrs                 0                       # number of cycles access was blocked
system.cpu.icache.blocked::no_targets               0                       # number of cycles access was blocked
system.cpu.icache.avg_blocked_cycles::no_mshrs          nan                       # average number of cycles each access was blocked
system.cpu.icache.avg_blocked_cycles::no_targets          nan                       # average number of cycles each access was blocked
system.cpu.icache.writebacks::.writebacks           34                       # number of writebacks
system.cpu.icache.writebacks::total                34                       # number of writebacks
system.cpu.icache.demand_mshr_misses::.cpu.inst          286                       # number of demand (read+write) MSHR misses
system.cpu.icache.demand_mshr_misses::total          286                       # number of demand (read+write) MSHR misses
system.cpu.icache.overall_mshr_misses::.cpu.inst          286                       # number of overall MSHR misses
system.cpu.icache.overall_mshr_misses::total          286                       # number of overall MSHR misses
system.cpu.icache.demand_mshr_miss_latency::.cpu.inst     11762500                       # number of demand (read+write) MSHR miss cycles
system.cpu.icache.demand_mshr_miss_latency::total     11762500                       # number of demand (read+write) MSHR miss cycles
system.cpu.icache.overall_mshr_miss_latency::.cpu.inst     11762500                       # number of overall MSHR miss cycles
system.cpu.icache.overall_mshr_miss_latency::total     11762500                       # number of overall MSHR miss cycles
system.cpu.icache.demand_mshr_miss_rate::.cpu.inst     0.000314                       # mshr miss rate for demand accesses
system.cpu.icache.demand_mshr_miss_rate::total     0.000314                       # mshr miss rate for demand accesses
system.cpu.icache.overall_mshr_miss_rate::.cpu.inst     0.000314                       # mshr miss rate for overall accesses
system.cpu.icache.overall_mshr_miss_rate::total     0.000314                       # mshr miss rate for overall accesses
system.cpu.icache.demand_avg_mshr_miss_latency::.cpu.inst 41127.622378                       # average overall mshr miss latency
system.cpu.icache.demand_avg_mshr_miss_latency::total 41127.622378                       # average overall mshr miss latency
system.cpu.icache.overall_avg_mshr_miss_latency::.cpu.inst 41127.622378                       # average overall mshr miss latency
system.cpu.icache.overall_avg_mshr_miss_latency::total 41127.622378                       # average overall mshr miss latency
system.cpu.icache.replacements                     34                       # number of replacements
system.cpu.icache.ReadReq_hits::.cpu.inst       910073                       # number of ReadReq hits
system.cpu.icache.ReadReq_hits::total          910073                       # number of ReadReq hits
system.cpu.icache.ReadReq_misses::.cpu.inst          286                       # number of ReadReq misses
system.cpu.icache.ReadReq_misses::total           286                       # number of ReadReq misses
system.cpu.icache.ReadReq_miss_latency::.cpu.inst     12048500                       # number of ReadReq miss cycles
system.cpu.icache.ReadReq_miss_latency::total     12048500                       # number of ReadReq miss cycles
system.cpu.icache.ReadReq_accesses::.cpu.inst       910359                       # number of ReadReq accesses(hits+misses)
system.cpu.icache.ReadReq_accesses::total       910359                       # number of ReadReq accesses(hits+misses)
system.cpu.icache.ReadReq_miss_rate::.cpu.inst     0.000314                       # miss rate for ReadReq accesses
system.cpu.icache.ReadReq_miss_rate::total     0.000314                       # miss rate for ReadReq accesses
system.cpu.icache.ReadReq_avg_miss_latency::.cpu.inst 42127.622378                       # average ReadReq miss latency
system.cpu.icache.ReadReq_avg_miss_latency::total 42127.622378                       # average ReadReq miss latency
system.cpu.icache.ReadReq_mshr_misses::.cpu.inst          286                       # number of ReadReq MSHR misses
system.cpu.icache.ReadReq_mshr_misses::total          286                       # number of ReadReq MSHR misses
system.cpu.icache.ReadReq_mshr_miss_latency::.cpu.inst     11762500                       # number of ReadReq MSHR miss cycles
system.cpu.icache.ReadReq_mshr_miss_latency::total     11762500                       # number of ReadReq MSHR miss cycles
system.cpu.icache.ReadReq_mshr_miss_rate::.cpu.inst     0.000314                       # mshr miss rate for ReadReq accesses
system.cpu.icache.ReadReq_mshr_miss_rate::total     0.000314                       # mshr miss rate for ReadReq accesses
system.cpu.icache.ReadReq_avg_mshr_miss_latency::.cpu.inst 41127.622378                       # average ReadReq mshr miss latency
system.cpu.icache.ReadReq_avg_mshr_miss_latency::total 41127.622378                       # average ReadReq mshr miss latency
system.cpu.icache.tags.pwrStateResidencyTicks::UNDEFINED   1386484000                       # Cumulative time (in ticks) in various power states
system.cpu.icache.tags.tagsinuse           167.108821                       # Cycle average of tags in use
system.cpu.icache.tags.total_refs              910359                       # Total number of references to valid blocks.
system.cpu.icache.tags.sampled_refs               286                       # Sample count of references to valid blocks.
system.cpu.icache.tags.avg_refs           3183.073427                       # Average number of references to valid blocks.
system.cpu.icache.tags.warmup_cycle             41000                       # Cycle when the warmup percentage was hit.
system.cpu.icache.tags.occ_blocks::.cpu.inst   167.108821                       # Average occupied blocks per requestor
system.cpu.icache.tags.occ_percent::.cpu.inst     0.326384                       # Average percentage of cache occupancy
system.cpu.icache.tags.occ_percent::total     0.326384                       # Average percentage of cache occupancy
system.cpu.icache.tags.occ_task_id_blocks::1024          252                       # Occupied blocks per task id
system.cpu.icache.tags.age_task_id_blocks_1024::0           98                       # Occupied blocks per task id
system.cpu.icache.tags.age_task_id_blocks_1024::1            7                       # Occupied blocks per task id
system.cpu.icache.tags.age_task_id_blocks_1024::2            1                       # Occupied blocks per task id
system.cpu.icache.tags.age_task_id_blocks_1024::3          146                       # Occupied blocks per task id
system.cpu.icache.tags.occ_task_id_percent::1024     0.492188                       # Percentage of cache occupancy per task id
system.cpu.icache.tags.tag_accesses           1821004                       # Number of tag accesses
system.cpu.icache.tags.data_accesses          1821004                       # Number of data accesses
system.cpu.dtb.walker.pwrStateResidencyTicks::UNDEFINED   1386484000                       # Cumulative time (in ticks) in various power states
system.cpu.dtb.stage2_mmu.stage2_tlb.walker.pwrStateResidencyTicks::UNDEFINED   1386484000                       # Cumulative time (in ticks) in various power states
system.cpu.itb.walker.pwrStateResidencyTicks::UNDEFINED   1386484000                       # Cumulative time (in ticks) in various power states
system.cpu.itb.stage2_mmu.stage2_tlb.walker.pwrStateResidencyTicks::UNDEFINED   1386484000                       # Cumulative time (in ticks) in various power states
system.cpu.dcache.pwrStateResidencyTicks::UNDEFINED   1386484000                       # Cumulative time (in ticks) in various power states
system.cpu.dcache.demand_hits::.cpu.data       374085                       # number of demand (read+write) hits
system.cpu.dcache.demand_hits::total           374085                       # number of demand (read+write) hits
system.cpu.dcache.overall_hits::.cpu.data       374106                       # number of overall hits
system.cpu.dcache.overall_hits::total          374106                       # number of overall hits
system.cpu.dcache.demand_misses::.cpu.data         2128                       # number of demand (read+write) misses
system.cpu.dcache.demand_misses::total           2128                       # number of demand (read+write) misses
system.cpu.dcache.overall_misses::.cpu.data         2137                       # number of overall misses
system.cpu.dcache.overall_misses::total          2137                       # number of overall misses
system.cpu.dcache.demand_miss_latency::.cpu.data     89392000                       # number of demand (read+write) miss cycles
system.cpu.dcache.demand_miss_latency::total     89392000                       # number of demand (read+write) miss cycles
system.cpu.dcache.overall_miss_latency::.cpu.data     89392000                       # number of overall miss cycles
system.cpu.dcache.overall_miss_latency::total     89392000                       # number of overall miss cycles
system.cpu.dcache.demand_accesses::.cpu.data       376213                       # number of demand (read+write) accesses
system.cpu.dcache.demand_accesses::total       376213                       # number of demand (read+write) accesses
system.cpu.dcache.overall_accesses::.cpu.data       376243                       # number of overall (read+write) accesses
system.cpu.dcache.overall_accesses::total       376243                       # number of overall (read+write) accesses
system.cpu.dcache.demand_miss_rate::.cpu.data     0.005656                       # miss rate for demand accesses
system.cpu.dcache.demand_miss_rate::total     0.005656                       # miss rate for demand accesses
system.cpu.dcache.overall_miss_rate::.cpu.data     0.005680                       # miss rate for overall accesses
system.cpu.dcache.overall_miss_rate::total     0.005680                       # miss rate for overall accesses
system.cpu.dcache.demand_avg_miss_latency::.cpu.data 42007.518797                       # average overall miss latency
system.cpu.dcache.demand_avg_miss_latency::total 42007.518797                       # average overall miss latency
system.cpu.dcache.overall_avg_miss_latency::.cpu.data 41830.603650                       # average overall miss latency
system.cpu.dcache.overall_avg_miss_latency::total 41830.603650                       # average overall miss latency
system.cpu.dcache.blocked_cycles::no_mshrs            0                       # number of cycles access was blocked
system.cpu.dcache.blocked_cycles::no_targets            0                       # number of cycles access was blocked
system.cpu.dcache.blocked::no_mshrs                 0                       # number of cycles access was blocked
system.cpu.dcache.blocked::no_targets               0                       # number of cycles access was blocked
system.cpu.dcache.avg_blocked_cycles::no_mshrs          nan                       # average number of cycles each access was blocked
system.cpu.dcache.avg_blocked_cycles::no_targets          nan                       # average number of cycles each access was blocked
system.cpu.dcache.writebacks::.writebacks          813                       # number of writebacks
system.cpu.dcache.writebacks::total               813                       # number of writebacks
system.cpu.dcache.demand_mshr_hits::.cpu.data            1                       # number of demand (read+write) MSHR hits
system.cpu.dcache.demand_mshr_hits::total            1                       # number of demand (read+write) MSHR hits
system.cpu.dcache.overall_mshr_hits::.cpu.data            1                       # number of overall MSHR hits
system.cpu.dcache.overall_mshr_hits::total            1                       # number of overall MSHR hits
system.cpu.dcache.demand_mshr_misses::.cpu.data         2127                       # number of demand (read+write) MSHR misses
system.cpu.dcache.demand_mshr_misses::total         2127                       # number of demand (read+write) MSHR misses
system.cpu.dcache.overall_mshr_misses::.cpu.data         2134                       # number of overall MSHR misses
system.cpu.dcache.overall_mshr_misses::total         2134                       # number of overall MSHR misses
system.cpu.dcache.demand_mshr_miss_latency::.cpu.data     87230000                       # number of demand (read+write) MSHR miss cycles
system.cpu.dcache.demand_mshr_miss_latency::total     87230000                       # number of demand (read+write) MSHR miss cycles
system.cpu.dcache.overall_mshr_miss_latency::.cpu.data     87517000                       # number of overall MSHR miss cycles
system.cpu.dcache.overall_mshr_miss_latency::total     87517000                       # number of overall MSHR miss cycles
system.cpu.dcache.demand_mshr_miss_rate::.cpu.data     0.005654                       # mshr miss rate for demand accesses
system.cpu.dcache.demand_mshr_miss_rate::total     0.005654                       # mshr miss rate for demand accesses
system.cpu.dcache.overall_mshr_miss_rate::.cpu.data     0.005672                       # mshr miss rate for overall accesses
system.cpu.dcache.overall_mshr_miss_rate::total     0.005672                       # mshr miss rate for overall accesses
system.cpu.dcache.demand_avg_mshr_miss_latency::.cpu.data 41010.813352                       # average overall mshr miss latency
system.cpu.dcache.demand_avg_mshr_miss_latency::total 41010.813352                       # average overall mshr miss latency
system.cpu.dcache.overall_avg_mshr_miss_latency::.cpu.data 41010.777882                       # average overall mshr miss latency
system.cpu.dcache.overall_avg_mshr_miss_latency::total 41010.777882                       # average overall mshr miss latency
system.cpu.dcache.replacements                   1111                       # number of replacements
system.cpu.dcache.ReadReq_hits::.cpu.data       307209                       # number of ReadReq hits
system.cpu.dcache.ReadReq_hits::total          307209                       # number of ReadReq hits
system.cpu.dcache.ReadReq_misses::.cpu.data          799                       # number of ReadReq misses
system.cpu.dcache.ReadReq_misses::total           799                       # number of ReadReq misses
system.cpu.dcache.ReadReq_miss_latency::.cpu.data     33568000                       # number of ReadReq miss cycles
system.cpu.dcache.ReadReq_miss_latency::total     33568000                       # number of ReadReq miss cycles
system.cpu.dcache.ReadReq_accesses::.cpu.data       308008                       # number of ReadReq accesses(hits+misses)
system.cpu.dcache.ReadReq_accesses::total       308008                       # number of ReadReq accesses(hits+misses)
system.cpu.dcache.ReadReq_miss_rate::.cpu.data     0.002594                       # miss rate for ReadReq accesses
system.cpu.dcache.ReadReq_miss_rate::total     0.002594                       # miss rate for ReadReq accesses
system.cpu.dcache.ReadReq_avg_miss_latency::.cpu.data 42012.515645                       # average ReadReq miss latency
system.cpu.dcache.ReadReq_avg_miss_latency::total 42012.515645                       # average ReadReq miss latency
system.cpu.dcache.ReadReq_mshr_hits::.cpu.data            1                       # number of ReadReq MSHR hits
system.cpu.dcache.ReadReq_mshr_hits::total            1                       # number of ReadReq MSHR hits
system.cpu.dcache.ReadReq_mshr_misses::.cpu.data          798                       # number of ReadReq MSHR misses
system.cpu.dcache.ReadReq_mshr_misses::total          798                       # number of ReadReq MSHR misses
system.cpu.dcache.ReadReq_mshr_miss_latency::.cpu.data     32735000                       # number of ReadReq MSHR miss cycles
system.cpu.dcache.ReadReq_mshr_miss_latency::total     32735000                       # number of ReadReq MSHR miss cycles
system.cpu.dcache.ReadReq_mshr_miss_rate::.cpu.data     0.002591                       # mshr miss rate for ReadReq accesses
system.cpu.dcache.ReadReq_mshr_miss_rate::total     0.002591                       # mshr miss rate for ReadReq accesses
system.cpu.dcache.ReadReq_avg_mshr_miss_latency::.cpu.data 41021.303258                       # average ReadReq mshr miss latency
system.cpu.dcache.ReadReq_avg_mshr_miss_latency::total 41021.303258                       # average ReadReq mshr miss latency
system.cpu.dcache.WriteReq_hits::.cpu.data        66876                       # number of WriteReq hits
system.cpu.dcache.WriteReq_hits::total          66876                       # number of WriteReq hits
system.cpu.dcache.WriteReq_misses::.cpu.data         1329                       # number of WriteReq misses
system.cpu.dcache.WriteReq_misses::total         1329                       # number of WriteReq misses
system.cpu.dcache.WriteReq_miss_latency::.cpu.data     55824000                       # number of WriteReq miss cycles
system.cpu.dcache.WriteReq_miss_latency::total     55824000                       # number of WriteReq miss cycles
system.cpu.dcache.WriteReq_accesses::.cpu.data        68205                       # number of WriteReq accesses(hits+misses)
system.cpu.dcache.WriteReq_accesses::total        68205                       # number of WriteReq accesses(hits+misses)
system.cpu.dcache.WriteReq_miss_rate::.cpu.data     0.019485                       # miss rate for WriteReq accesses
system.cpu.dcache.WriteReq_miss_rate::total     0.019485                       # miss rate for WriteReq accesses
system.cpu.dcache.WriteReq_avg_miss_latency::.cpu.data 42004.514673                       # average WriteReq miss latency
system.cpu.dcache.WriteReq_avg_miss_latency::total 42004.514673                       # average WriteReq miss latency
system.cpu.dcache.WriteReq_mshr_misses::.cpu.data         1329                       # number of WriteReq MSHR misses
system.cpu.dcache.WriteReq_mshr_misses::total         1329                       # number of WriteReq MSHR misses
system.cpu.dcache.WriteReq_mshr_miss_latency::.cpu.data     54495000                       # number of WriteReq MSHR miss cycles
system.cpu.dcache.WriteReq_mshr_miss_latency::total     54495000                       # number of WriteReq MSHR miss cycles
system.cpu.dcache.WriteReq_mshr_miss_rate::.cpu.data     0.019485                       # mshr miss rate for WriteReq accesses
system.cpu.dcache.WriteReq_mshr_miss_rate::total     0.019485                       # mshr miss rate for WriteReq accesses
system.cpu.dcache.WriteReq_avg_mshr_miss_latency::.cpu.data 41004.514673                       # average WriteReq mshr miss latency
system.cpu.dcache.WriteReq_avg_mshr_miss_latency::total 41004.514673                       # average WriteReq mshr miss latency
system.cpu.dcache.SoftPFReq_hits::.cpu.data           21                       # number of SoftPFReq hits
system.cpu.dcache.SoftPFReq_hits::total            21                       # number of SoftPFReq hits
system.cpu.dcache.SoftPFReq_misses::.cpu.data            9                       # number of SoftPFReq misses
system.cpu.dcache.SoftPFReq_misses::total            9                       # number of SoftPFReq misses
system.cpu.dcache.SoftPFReq_accesses::.cpu.data           30                       # number of SoftPFReq accesses(hits+misses)
system.cpu.dcache.SoftPFReq_accesses::total           30                       # number of SoftPFReq accesses(hits+misses)
system.cpu.dcache.SoftPFReq_miss_rate::.cpu.data     0.300000                       # miss rate for SoftPFReq accesses
system.cpu.dcache.SoftPFReq_miss_rate::total     0.300000                       # miss rate for SoftPFReq accesses
system.cpu.dcache.SoftPFReq_mshr_misses::.cpu.data            7                       # number of SoftPFReq MSHR misses
system.cpu.dcache.SoftPFReq_mshr_misses::total            7                       # number of SoftPFReq MSHR misses
system.cpu.dcache.SoftPFReq_mshr_miss_latency::.cpu.data       287000                       # number of SoftPFReq MSHR miss cycles
system.cpu.dcache.SoftPFReq_mshr_miss_latency::total       287000                       # number of SoftPFReq MSHR miss cycles
system.cpu.dcache.SoftPFReq_mshr_miss_rate::.cpu.data     0.233333                       # mshr miss rate for SoftPFReq accesses
system.cpu.dcache.SoftPFReq_mshr_miss_rate::total     0.233333                       # mshr miss rate for SoftPFReq accesses
system.cpu.dcache.SoftPFReq_avg_mshr_miss_latency::.cpu.data        41000                       # average SoftPFReq mshr miss latency
system.cpu.dcache.SoftPFReq_avg_mshr_miss_latency::total        41000                       # average SoftPFReq mshr miss latency
system.cpu.dcache.LoadLockedReq_hits::.cpu.data           17                       # number of LoadLockedReq hits
system.cpu.dcache.LoadLockedReq_hits::total           17                       # number of LoadLockedReq hits
system.cpu.dcache.LoadLockedReq_misses::.cpu.data            1                       # number of LoadLockedReq misses
system.cpu.dcache.LoadLockedReq_misses::total            1                       # number of LoadLockedReq misses
system.cpu.dcache.LoadLockedReq_miss_latency::.cpu.data        42000                       # number of LoadLockedReq miss cycles
system.cpu.dcache.LoadLockedReq_miss_latency::total        42000                       # number of LoadLockedReq miss cycles
system.cpu.dcache.LoadLockedReq_accesses::.cpu.data           18                       # number of LoadLockedReq accesses(hits+misses)
system.cpu.dcache.LoadLockedReq_accesses::total           18                       # number of LoadLockedReq accesses(hits+misses)
system.cpu.dcache.LoadLockedReq_miss_rate::.cpu.data     0.055556                       # miss rate for LoadLockedReq accesses
system.cpu.dcache.LoadLockedReq_miss_rate::total     0.055556                       # miss rate for LoadLockedReq accesses
system.cpu.dcache.LoadLockedReq_avg_miss_latency::.cpu.data        42000                       # average LoadLockedReq miss latency
system.cpu.dcache.LoadLockedReq_avg_miss_latency::total        42000                       # average LoadLockedReq miss latency
system.cpu.dcache.LoadLockedReq_mshr_misses::.cpu.data            1                       # number of LoadLockedReq MSHR misses
system.cpu.dcache.LoadLockedReq_mshr_misses::total            1                       # number of LoadLockedReq MSHR misses
system.cpu.dcache.LoadLockedReq_mshr_miss_latency::.cpu.data        41000                       # number of LoadLockedReq MSHR miss cycles
system.cpu.dcache.LoadLockedReq_mshr_miss_latency::total        41000                       # number of LoadLockedReq MSHR miss cycles
system.cpu.dcache.LoadLockedReq_mshr_miss_rate::.cpu.data     0.055556                       # mshr miss rate for LoadLockedReq accesses
system.cpu.dcache.LoadLockedReq_mshr_miss_rate::total     0.055556                       # mshr miss rate for LoadLockedReq accesses
system.cpu.dcache.LoadLockedReq_avg_mshr_miss_latency::.cpu.data        41000                       # average LoadLockedReq mshr miss latency
system.cpu.dcache.LoadLockedReq_avg_mshr_miss_latency::total        41000                       # average LoadLockedReq mshr miss latency
system.cpu.dcache.StoreCondReq_hits::.cpu.data           18                       # number of StoreCondReq hits
system.cpu.dcache.StoreCondReq_hits::total           18                       # number of StoreCondReq hits
system.cpu.dcache.StoreCondReq_accesses::.cpu.data           18                       # number of StoreCondReq accesses(hits+misses)
system.cpu.dcache.StoreCondReq_accesses::total           18                       # number of StoreCondReq accesses(hits+misses)
system.cpu.dcache.tags.pwrStateResidencyTicks::UNDEFINED   1386484000                       # Cumulative time (in ticks) in various power states
system.cpu.dcache.tags.tagsinuse           818.332124                       # Cycle average of tags in use
system.cpu.dcache.tags.total_refs              376276                       # Total number of references to valid blocks.
system.cpu.dcache.tags.sampled_refs              2135                       # Sample count of references to valid blocks.
system.cpu.dcache.tags.avg_refs            176.241686                       # Average number of references to valid blocks.
system.cpu.dcache.tags.warmup_cycle             89000                       # Cycle when the warmup percentage was hit.
system.cpu.dcache.tags.occ_blocks::.cpu.data   818.332124                       # Average occupied blocks per requestor
system.cpu.dcache.tags.occ_percent::.cpu.data     0.799152                       # Average percentage of cache occupancy
system.cpu.dcache.tags.occ_percent::total     0.799152                       # Average percentage of cache occupancy
system.cpu.dcache.tags.occ_task_id_blocks::1024         1024                       # Occupied blocks per task id
system.cpu.dcache.tags.age_task_id_blocks_1024::0           50                       # Occupied blocks per task id
system.cpu.dcache.tags.age_task_id_blocks_1024::1          203                       # Occupied blocks per task id
system.cpu.dcache.tags.age_task_id_blocks_1024::2          533                       # Occupied blocks per task id
system.cpu.dcache.tags.age_task_id_blocks_1024::3          238                       # Occupied blocks per task id
system.cpu.dcache.tags.occ_task_id_percent::1024            1                       # Percentage of cache occupancy per task id
system.cpu.dcache.tags.tag_accesses            754693                       # Number of tag accesses
system.cpu.dcache.tags.data_accesses           754693                       # Number of data accesses

---------- End Simulation Statistics   ----------
